Feeders/solidamente/SDBT/v.dss
ClearAll

redirect modelo/fonte_ideal.dss
redirect modelo/trafo_mt_bt_ideal.dss
redirect modelo/arranjo.dss

New Line.LA phases=4 bus1=A.1.2.3.4 bus2=B.1.2.3.4 geometry=S1_4AWG earthmodel=Carson length=0.2 units=km 
New Line.LB phases=4 bus1=B.1.2.3.4 bus2=C.1.2.3.4 geometry=S1_4AWG earthmodel=Carson length=0.2 units=km 
New Line.LC phases=4 bus1=C.1.2.3.4 bus2=D.1.2.3.4 geometry=S1_4AWG earthmodel=Carson length=0.2 units=km 
New Line.LD phases=4 bus1=D.1.2.3.4 bus2=E.1.2.3.4 geometry=S1_4AWG earthmodel=Carson length=0.2 units=km 
New Line.LE phases=4 bus1=E.1.2.3.4 bus2=F.1.2.3.4 geometry=S1_4AWG earthmodel=Carson length=0.2 units=km 

!New reactor.rHEAD phases=1 bus1=A.4 bus2=A.0 r=2 x=0
New reactor.rA phases=1 bus1=A.4 bus2=A.0 r=15 x=0

/*
New reactor.rB phases=1 bus1=B.4 bus2=B.0 r=15 x=0
New reactor.rC phases=1 bus1=C.4 bus2=C.0 r=15 x=0
New reactor.rD phases=1 bus1=D.4 bus2=D.0 r=15 x=0
New reactor.rE phases=1 bus1=E.4 bus2=E.0 r=15 x=0
*/

New reactor.rF phases=1 bus1=F.4 bus2=F.0 r=15 x=0

redirect modelo/carga_isource.dss
redirect modelo/medidor.dss

solve
Show Currents Elements